/*--------------------------------*- C++ -*----------------------------------*\
| =========                 |                                                 |
| \\      /  F ield         | OpenFOAM: The Open Source CFD Toolbox           |
|  \\    /   O peration     | Version:  5.x                                   |
|   \\  /    A nd           | Web:      www.OpenFOAM.org                      |
|    \\/     M anipulation  |                                                 |
\*---------------------------------------------------------------------------*/
FoamFile
{
    version     2.0;
    format      ascii;
    class       dictionary;
    object      controlDict;
}
// * * * * * * * * * * * * * * * * * * * * * * * * * * * * * * * * * * * * * //

application     simpleFoam;

startFrom       latestTime;

startTime       0;

stopAt          endTime;

endTime         60;

deltaT          1; //1e-4; //1e-06;

writeControl    adjustableRunTime; //runTime;

writeInterval    0.1; //0.01;

purgeWrite      0;

writeFormat     ascii;

writePrecision  10;

writeCompression off;

timeFormat      general;

timePrecision   10;

runTimeModifiable yes;

maxCo 		0.5;

adjustTimeStep yes;

// ************************************************************************* //

functions
{

///////////////////////////////////////////////////////////////////////////

    inMassFlow
    {
        type            surfaceFieldValue;
        functionObjectLibs ("libfieldFunctionObjects.so");
        enabled         true;

        //writeControl     outputTime;
	writeControl   timeStep;
	writeInterval  1;

        log             true;

        writeFields     false;

        regionType          patch;
        name		inlet;
	
	operation       sum;
        fields
        (
            phi
        );
    }

///////////////////////////////////////////////////////////////////////////

///////////////////////////////////////////////////////////////////////////
    
    outMassFlow
    {
        type            surfaceFieldValue;
        functionObjectLibs ("libfieldFunctionObjects.so");
        enabled         true;

	//writeControl     outputTime;

	writeControl   timeStep;
	writeInterval  1;

        log             yes;

        writeFields     false;

        //writeFields     true;
        //surfaceFormat   raw;

        regionType          patch;
        name		outerBox;
	name		symmetricWall;

	operation       sum;
        fields
        (
            phi
        );
    }

///////////////////////////////////////////////////////////////////////////

///////////////////////////////////////////////////////////////////////////

    fieldAverage
    {
        type            fieldAverage;
        functionObjectLibs ("libfieldFunctionObjects.so");
        enabled         false;
        writeControl   outputTime;

        //writeControl   timeStep;
	//writeInterval  100;

	//cleanRestart true;

        timeStart       20;
        timeEnd         200;

        fields
        (
            U
            {
                mean        on;
                prime2Mean  on;
                base        time;
            }

            p
            {
                mean        on;
                prime2Mean  on;
                base        time;
            }
        );
    }

///////////////////////////////////////////////////////////////////////////

///////////////////////////////////////////////////////////////////////////

forces_object
{
	type forces;
	functionObjectLibs ("libforces.so");

	//writeControl outputTime;
	writeControl   timeStep;
	writeInterval  1;

	enabled true;

	//// Patches to sample
	patches ("outerBox");
	patches ("symmetricWall");

	//// Name of fields
	pName p;
	Uname U;

	//// Density
	rho rhoInf;
	rhoInf 1.225;

	//// Centre of rotation
	CofR (0 0 0);
}

///////////////////////////////////////////////////////////////////////////

///////////////////////////////////////////////////////////////////////////

/*
forceCoeffs_object
{
	// rhoInf - reference density
	// CofR - Centre of rotation
	// dragDir - Direction of drag coefficient
	// liftDir - Direction of lift coefficient
	// pitchAxis - Pitching moment axis
	// magUinf - free stream velocity magnitude
	// lRef - reference length
	// Aref - reference area
	type forceCoeffs;
	functionObjectLibs ("libforces.so");
	patches ("outerBox");
	patches ("symmetricWall");

	pName p;
	Uname U;
	rho rhoInf;
	rhoInf 1.0;

	//// Dump to file
	log true;

	CofR (0.0 0 0);
	liftDir (0 1 0);
	dragDir (1 0 0);
	pitchAxis (0 0 1);
	magUInf 1.0;
	lRef 1.0;         // reference lenght
	Aref 2.0;         // reference area 1 for 2d

        writeControl   timeStep;
        writeInterval  1;
}
*/

///////////////////////////////////////////////////////////////////////////

///////////////////////////////////////////////////////////////////////////

minmaxdomain
{
	type fieldMinMax;

	functionObjectLibs ("libfieldFunctionObjects.so");

	enabled true;

	mode component;

	writeControl timeStep;
	writeInterval 1;

	log true;

	fields (p U);
}

///////////////////////////////////////////////////////////////////////////

///////////////////////////////////////////////////////////////////////////
yplus
{
    type                yPlus;
    functionObjectLibs  ("libutilityFunctionObjects.so");

    enabled true;

    writeControl outputTime;
    //writeControl timeStep;
    //writeInterval 1;

    //log true;
}
///////////////////////////////////////////////////////////////////////////

};
